untitled
  ChemPy            3D                             0

 28 30  0  0  1  0  0  0  0  0999 V2000
   64.7150   80.5020   11.7150 C   0  0  0  0  0  0  0  0  0  0  0  0
   61.0440   72.8170    9.0790 C   0  0  0  0  0  0  0  0  0  0  0  0
   61.8490   73.9410    8.8480 C   0  0  0  0  0  0  0  0  0  0  0  0
   65.3060   80.1800   12.9380 C   0  0  0  0  0  0  0  0  0  0  0  0
   65.5000   80.9810   10.6660 C   0  0  0  0  0  0  0  0  0  0  0  0
   66.6810   80.3370   13.1110 C   0  0  0  0  0  0  0  0  0  0  0  0
   66.8750   81.1380   10.8400 C   0  0  0  0  0  0  0  0  0  0  0  0
   60.2800   72.7040   10.2440 C   0  0  0  0  0  0  0  0  0  0  0  0
   61.8760   74.9620    9.8140 C   0  0  0  0  0  0  0  0  0  0  0  0
   62.5330   76.2120    9.9540 C   0  0  0  0  0  0  0  0  0  0  0  0
   67.4660   80.8170   12.0630 C   0  0  0  0  0  0  0  0  0  0  0  0
   60.2910   73.7080   11.2180 C   0  0  0  0  0  0  0  0  0  0  0  0
   61.1010   74.8120   10.9600 C   0  0  0  0  0  0  0  0  0  0  0  0
   63.2330   80.3340   11.5290 C   0  0  0  0  0  0  0  0  0  0  0  0
   62.1220   76.7350   11.1580 A   0  0  0  0  0  0  0  0  0  0  0  0
   62.9540   78.8890   10.0060 H   0  0  0  0  0  0  0  0  0  0  0  0
   69.1090   78.6690   12.6070 H   0  0  0  0  0  0  0  0  0  0  0  0
   69.8160   79.4680   13.9590 H   0  0  0  0  0  0  0  0  0  0  0  0
   60.1790   73.0180   13.4920 C   0  0  0  0  0  0  0  0  0  0  0  0
   69.8050   81.1250   10.9650 O   0  0  0  0  0  0  0  0  0  0  0  0
   69.4130   82.0480   13.2760 O   0  0  0  0  0  0  0  0  0  0  0  0
   69.1870   81.0120   12.2790 S   0  0  0  0  0  0  0  0  0  0  0  0
   62.3460   78.1360   13.0560 O   0  0  0  0  0  0  0  0  0  0  0  0
   62.4500   77.9530   11.8150 C   0  0  0  0  0  0  0  0  0  0  0  0
   61.2530   75.8940   11.7760 O   0  0  0  0  0  0  0  0  0  0  0  0
   69.6040   79.4990   12.9550 N   0  0  0  0  0  0  0  0  0  0  0  0
   59.5450   73.5950   12.3530 O   0  0  0  0  0  0  0  0  0  0  0  0
   62.8910   79.0290   11.0110 N   0  0  0  0  0  0  0  0  0  0  0  0
  1  4  1  0  0  0  0
  1  5  1  0  0  0  0
  2  3  1  0  0  0  0
  2  8  1  0  0  0  0
  4  6  1  0  0  0  0
  6 11  1  0  0  0  0
  7  5  1  0  0  0  0
  8 12  1  0  0  0  0
  9  3  1  0  0  0  0
  9 10  1  0  0  0  0
  9 13  1  0  0  0  0
 10 15  1  0  0  0  0
 11  7  1  0  0  0  0
 11 22  1  0  0  0  0
 12 13  1  0  0  0  0
 12 27  1  0  0  0  0
 13 25  1  0  0  0  0
 14  1  1  0  0  0  0
 15 24  1  0  0  0  0
 15 25  1  0  0  0  0
 22 20  1  0  0  0  0
 22 21  1  0  0  0  0
 22 26  1  0  0  0  0
 24 23  1  0  0  0  0
 24 28  1  0  0  0  0
 26 17  1  0  0  0  0
 26 18  1  0  0  0  0
 27 19  1  0  0  0  0
 28 14  1  0  0  0  0
 28 16  1  0  0  0  0
M  END
