untitled
  ChemPy            3D                             0

 28 30  0  0  1  0  0  0  0  0999 V2000
   35.7490    3.5320  -41.3160 A   0  0  0  0  0  0  0  0  0  0  0  0
   42.5060    3.5790  -35.5720 A   0  0  0  0  0  0  0  0  0  0  0  0
   41.5380    4.2330  -36.3470 A   0  0  0  0  0  0  0  0  0  0  0  0
   36.7100    4.5300  -41.4820 A   0  0  0  0  0  0  0  0  0  0  0  0
   34.8780    3.2230  -42.3600 A   0  0  0  0  0  0  0  0  0  0  0  0
   36.7990    5.2180  -42.6920 A   0  0  0  0  0  0  0  0  0  0  0  0
   34.9670    3.9110  -43.5700 A   0  0  0  0  0  0  0  0  0  0  0  0
   42.5610    2.1830  -35.5150 A   0  0  0  0  0  0  0  0  0  0  0  0
   40.6160    3.4570  -37.0710 A   0  0  0  0  0  0  0  0  0  0  0  0
   39.5240    3.7230  -37.9390 A   0  0  0  0  0  0  0  0  0  0  0  0
   35.9280    4.9090  -43.7360 A   0  0  0  0  0  0  0  0  0  0  0  0
   41.6550    1.3920  -36.2270 A   0  0  0  0  0  0  0  0  0  0  0  0
   40.7040    2.0720  -36.9870 A   0  0  0  0  0  0  0  0  0  0  0  0
   35.6520    2.7920  -40.0110 C   0  0  0  0  0  0  0  0  0  0  0  0
   39.0270    2.4990  -38.3230 A   0  0  0  0  0  0  0  0  0  0  0  0
   36.8220    3.8150  -38.5720 H   0  0  0  0  0  0  0  0  0  0  0  0
   36.8180    7.8550  -44.4440 H   0  0  0  0  0  0  0  0  0  0  0  0
   37.9730    7.1160  -45.4870 H   0  0  0  0  0  0  0  0  0  0  0  0
   42.9870   -0.5730  -36.3780 C   0  0  0  0  0  0  0  0  0  0  0  0
   36.6310    4.8800  -46.2410 O   0  0  0  0  0  0  0  0  0  0  0  0
   34.7570    6.4010  -45.5200 O   0  0  0  0  0  0  0  0  0  0  0  0
   36.0400    5.7690  -45.2510 S   0  0  0  0  0  0  0  0  0  0  0  0
   37.9470    1.1550  -39.9490 O   0  0  0  0  0  0  0  0  0  0  0  0
   37.9450    2.1500  -39.1780 C   0  0  0  0  0  0  0  0  0  0  0  0
   39.7360    1.4910  -37.7510 O   0  0  0  0  0  0  0  0  0  0  0  0
   37.1760    6.9830  -44.8530 N   0  0  0  0  0  0  0  0  0  0  0  0
   41.7120    0.0320  -36.1700 O   0  0  0  0  0  0  0  0  0  0  0  0
   36.8140    2.9980  -39.1780 N   0  0  0  0  0  0  0  0  0  0  0  0
  1  4  1  0  0  0  0
  1  5  1  0  0  0  0
  2  3  1  0  0  0  0
  2  8  1  0  0  0  0
  4  6  1  0  0  0  0
  6 11  1  0  0  0  0
  7  5  1  0  0  0  0
  8 12  1  0  0  0  0
  9  3  1  0  0  0  0
  9 10  1  0  0  0  0
  9 13  1  0  0  0  0
 10 15  1  0  0  0  0
 11  7  1  0  0  0  0
 11 22  1  0  0  0  0
 12 13  1  0  0  0  0
 12 27  1  0  0  0  0
 13 25  1  0  0  0  0
 14  1  1  0  0  0  0
 15 24  1  0  0  0  0
 15 25  1  0  0  0  0
 22 20  1  0  0  0  0
 22 21  1  0  0  0  0
 22 26  1  0  0  0  0
 24 23  1  0  0  0  0
 24 28  1  0  0  0  0
 26 17  1  0  0  0  0
 26 18  1  0  0  0  0
 27 19  1  0  0  0  0
 28 14  1  0  0  0  0
 28 16  1  0  0  0  0
M  END
