untitled
  ChemPy            3D                             0

 28 30  0  0  1  0  0  0  0  0999 V2000
   26.2870  -21.1540  -41.7430 C   0  0  0  0  0  0  0  0  0  0  0  0
   28.0690  -22.2570  -42.9440 C   0  0  0  0  0  0  0  0  0  0  0  0
   23.0960  -14.0040  -39.3730 C   0  0  0  0  0  0  0  0  0  0  0  0
   24.9470  -15.4760  -38.8760 C   0  0  0  0  0  0  0  0  0  0  0  0
   27.1630  -22.2460  -41.8750 C   0  0  0  0  0  0  0  0  0  0  0  0
   23.7050  -12.9890  -38.6350 C   0  0  0  0  0  0  0  0  0  0  0  0
   25.5560  -14.4610  -38.1380 C   0  0  0  0  0  0  0  0  0  0  0  0
   23.7170  -15.2480  -39.4930 C   0  0  0  0  0  0  0  0  0  0  0  0
   28.1080  -21.2060  -43.8660 C   0  0  0  0  0  0  0  0  0  0  0  0
   25.2610  -20.7780  -40.8370 C   0  0  0  0  0  0  0  0  0  0  0  0
   24.9350  -13.2170  -38.0170 C   0  0  0  0  0  0  0  0  0  0  0  0
   27.2470  -20.1110  -43.7540 C   0  0  0  0  0  0  0  0  0  0  0  0
   26.3570  -20.1300  -42.6810 C   0  0  0  0  0  0  0  0  0  0  0  0
   24.7810  -19.5650  -41.2750 C   0  0  0  0  0  0  0  0  0  0  0  0
   23.0620  -16.3410  -40.2900 C   0  0  0  0  0  0  0  0  0  0  0  0
   24.9040  -16.9940  -41.1040 H   0  0  0  0  0  0  0  0  0  0  0  0
   27.3390  -12.2040  -38.7790 H   0  0  0  0  0  0  0  0  0  0  0  0
   27.6600  -10.8260  -37.7950 H   0  0  0  0  0  0  0  0  0  0  0  0
   24.7580  -10.8410  -36.9710 O   0  0  0  0  0  0  0  0  0  0  0  0
   26.2820  -12.5340  -35.8960 O   0  0  0  0  0  0  0  0  0  0  0  0
   27.8760  -19.3660  -45.9230 C   0  0  0  0  0  0  0  0  0  0  0  0
   25.6970  -11.9480  -37.0920 S   0  0  0  0  0  0  0  0  0  0  0  0
   22.6420  -19.1290  -40.3530 O   0  0  0  0  0  0  0  0  0  0  0  0
   23.7590  -18.7180  -40.7650 C   0  0  0  0  0  0  0  0  0  0  0  0
   25.4390  -19.1640  -42.3930 O   0  0  0  0  0  0  0  0  0  0  0  0
   26.9580  -11.4860  -38.1500 N   0  0  0  0  0  0  0  0  0  0  0  0
   24.0110  -17.3270  -40.7510 N   0  0  0  0  0  0  0  0  0  0  0  0
   27.2880  -19.0880  -44.6540 O   0  0  0  0  0  0  0  0  0  0  0  0
  1  5  1  0  0  0  0
  1 10  1  0  0  0  0
  2  9  1  0  0  0  0
  3  8  1  0  0  0  0
  4  7  1  0  0  0  0
  5  2  1  0  0  0  0
  6  3  1  0  0  0  0
  8  4  1  0  0  0  0
  8 15  1  0  0  0  0
 11  6  1  0  0  0  0
 11  7  1  0  0  0  0
 12  9  1  0  0  0  0
 12 28  1  0  0  0  0
 13  1  1  0  0  0  0
 13 12  1  0  0  0  0
 14 10  1  0  0  0  0
 14 25  1  0  0  0  0
 15 27  1  0  0  0  0
 22 11  1  0  0  0  0
 22 19  1  0  0  0  0
 22 20  1  0  0  0  0
 22 26  1  0  0  0  0
 24 14  1  0  0  0  0
 24 23  1  0  0  0  0
 25 13  1  0  0  0  0
 26 17  1  0  0  0  0
 26 18  1  0  0  0  0
 27 16  1  0  0  0  0
 27 24  1  0  0  0  0
 28 21  1  0  0  0  0
M  END
